Circuit: * Z:\home\nils\Dropbox\Projekte\Handschuh\USB\Schaltplan\Draft1.asc

B1: both pins shorted together -- ignoring.
Direct Newton iteration for .op point succeeded.

Date: Mon Nov 25 23:27:06 2013
Total elapsed time: 0.124 seconds.

tnom = 27
temp = 27
method = modified trap
totiter = 2168
traniter = 2161
tranpoints = 1047
accept = 1043
rejected = 4
matrix size = 9
fillins = 0
solver = Normal
Matrix Compiler1:      16 opcodes  1.4/[1.0]/1.2
Matrix Compiler2: off  [1.0]/1.3/1.2


